Circuit: *LTspice

Questionable use of curly braces in "b§e_abmgate yint 0 v={if(v(a)>{{vthresh}}&v(b)>{{vthresh}},{{vdd}},{{vss}})}"
    Error: undefined symbol in: "if([v](a)>((vthresh))&v(b)>((vthresh)),((vdd)),((vss)))"
Questionable use of curly braces in "b§e_abmgate yint 0 v={if(v(a)>{{vthresh}},{{vss}},{{vdd}})}"
    Error: undefined symbol in: "if([v](a)>((vthresh)),((vss)),((vdd)))"
Questionable use of curly braces in "b§e_abmgate yint 0 v={if(v(a)>{{vthresh}}|v(b)>{{vthresh}},{{vdd}},{{vss}})}"
    Error: undefined symbol in: "if([v](a)>((vthresh))|v(b)>((vthresh)),((vdd)),((vss)))"
Questionable use of curly braces in "b§e_abmgate yint 0 v={if(v(a)>{{vthresh}}&v(b)>{{vthresh}},{{vdd}},{{vss}})}"
    Error: undefined symbol in: "if([v](a)>((vthresh))&v(b)>((vthresh)),((vdd)),((vss)))"
Questionable use of curly braces in "b§e_abmgate yint 0 v={if(v(a)>{{vthresh}}|v(b)>{{vthresh}},{{vdd}},{{vss}})}"
    Error: undefined symbol in: "if([v](a)>((vthresh))|v(b)>((vthresh)),((vdd)),((vss)))"
Per .tran options, skipping operating point for transient analysis.
Heightened Def Con from 6.36631e-06 to 6.36844e-06
Heightened Def Con from 6.38412e-06 to 6.38412e-06

Date: Wed Jul 31 21:01:48 2024
Total elapsed time: 8.208 seconds.

tnom = 27
temp = 27
method = modified trap
totiter = 730766
traniter = 730766
tranpoints = 312563
accept = 273173
rejected = 39392
matrix size = 118
fillins = 46
solver = Normal
Avg thread counts: 1.0/1.0/1.0/1.0
Matrix Compiler1: 8.72 KB object code size  2.6/1.6/[1.0]
Matrix Compiler2: 9.66 KB object code size  1.0/1.8/[1.0]

